12

C    -0.566305    1.194178   -1.174854
N    -0.566315   -0.094435   -1.174192
C     0.018687   -0.444785    0.039011
C     0.354748    0.679684    0.735098
N    -0.031780    1.750208   -0.066956
F    -1.033011    1.971038   -2.142972
C     0.202216   -1.872527    0.420416
H     0.817252    0.826610    1.693940
H     0.061038    2.731781    0.124898
H     0.674136   -1.956436    1.398654
H    -0.756686   -2.392400    0.455263
H     0.826021   -2.392916   -0.308305

